8
$Revision: 7.8 $ bohr
C       -0.2003259123        0.0000000000       -1.4269296645
C        0.2003259123        0.0000000000        1.4269296645
H       -2.2104549009        0.0000000000       -1.9008373239
H        2.2104549009        0.0000000000        1.9008373239
H        0.6485856097       -1.6668156152       -2.3021358629
H        0.6485856097        1.6668156152       -2.3021358629
H       -0.6485856097       -1.6668156152        2.3021358629
H       -0.6485856097        1.6668156152        2.3021358629
